23
Properties=species:S:1:pos:R:3:occupancy:R:1:bfactor:R:1:residuenames:S:1:atomtypes:S:1:residuenumbers:I:1 pbc="F F F"
C       -0.67900000      -3.54900000       0.62400000       1.00000000       0.00000000 SER  CAY        1
H       -0.54700000      -3.84000000       1.65900000       1.00000000       0.00000000 SER  HY1        1
H       -0.20600000      -4.45400000       0.14600000       1.00000000       0.00000000 SER  HY2        1
H       -1.71700000      -3.44400000       0.51300000       1.00000000       0.00000000 SER  HY3        1
C        0.19900000      -2.37700000       0.35900000       1.00000000       0.00000000 SER  CY        1
O        1.39100000      -2.41300000       0.59100000       1.00000000       0.00000000 SER  OY        1
N       -0.38500000      -1.25300000      -0.16600000       1.00000000       0.00000000 SER  N         1
H       -1.33900000      -1.21900000      -0.25900000       1.00000000       0.00000000 SER  HN        1
C        0.19500000       0.09700000      -0.19300000       1.00000000       0.00000000 SER  CA        1
H        0.88800000      -0.02800000       0.64100000       1.00000000       0.00000000 SER  HA        1
C        1.03000000       0.44400000      -1.47200000       1.00000000       0.00000000 SER  CB        1
H        1.69700000      -0.41300000      -1.84500000       1.00000000       0.00000000 SER  HB1        1
H        0.35100000       0.70200000      -2.42000000       1.00000000       0.00000000 SER  HB2        1
C        1.96000000       1.51900000      -1.34400000       1.00000000       0.00000000 SER  OG        1
C        2.65800000       1.16000000      -0.82400000       1.00000000       0.00000000 SER  HG1        1
C       -0.83800000       1.10000000       0.07200000       1.00000000       0.00000000 SER  C         1
O       -1.96800000       0.78900000       0.42600000       1.00000000       0.00000000 SER  O         1
N       -0.52100000       2.41200000      -0.05700000       1.00000000       0.00000000 SER  NT        1
H        0.44500000       2.55800000      -0.34300000       1.00000000       0.00000000 SER  HNT        1
C       -1.48300000       3.37900000       0.03800000       1.00000000       0.00000000 SER  CAT        1
H       -2.33300000       3.16900000      -0.71600000       1.00000000       0.00000000 SER  HT1        1
H       -1.92500000       3.50900000       1.10700000       1.00000000       0.00000000 SER  HT2        1
H       -1.07900000       4.31800000      -0.41700000       1.00000000       0.00000000 SER  HT3        1
