42
Properties=species:S:1:pos:R:3 pbc="F F F" generated=T by=T VMD=T
H        2.06235159       3.04693751      -1.91566564
H        2.58595168       1.72586157      -0.86184308
H        2.17794240       3.31734403      -0.15371441
C        1.90973218       2.58957587      -0.92939885
O        0.02929514       1.25117203      -1.60961793
C        0.48206800       2.10522718      -0.83653220
N       -0.29160345       2.67375210       0.13295926
H        0.16702891       3.24480339       0.83228148
C       -1.67268906       2.24879965       0.39160303
H       -1.98639104       2.79833689       1.28949441
C       -2.60943545       2.61200848      -0.76051025
C       -1.65817736       0.77050103       0.84983282
O       -1.07109956       0.46387797       1.89131032
H       -3.64125865       2.31877780      -0.52842444
H       -2.59551419       3.69689647      -0.92212047
H       -2.29354380       2.13492192      -1.69517079
N       -2.29360462      -0.13747391       0.07003707
H       -2.62360441       0.15865177      -0.84260841
C       -2.22223840      -1.56700897       0.35405691
H       -2.49642062      -1.71348568       1.40745784
C       -3.18472327      -2.33372244      -0.54888859
C       -0.79525322      -2.16141419       0.24551817
O       -0.54202354      -3.22845824       0.79957335
H       -3.10666502      -3.40534011      -0.33543718
H       -4.22287212      -2.01775553      -0.38265295
H       -2.93555201      -2.18048993      -1.60892860
N        0.08630520      -1.44049707      -0.49085892
H       -0.19945653      -0.55439023      -0.91241075
C        1.49713083      -1.76859795      -0.60070748
H        1.61458758      -2.75999025      -0.13501666
C        1.94018722      -1.81544839      -2.06151815
C        2.38761494      -0.79719772       0.21427222
O        3.57887423      -0.63480263      -0.06051782
H        3.01665344      -2.00543279      -2.12153993
H        1.39939821      -2.60658073      -2.59514404
H        1.73260715      -0.85629074      -2.55502196
N        1.78207656      -0.16021426       1.24685450
H        0.78983206      -0.29562591       1.43168763
C        2.52739039       0.70615177       2.13783609
H        3.18723396       0.13172162       2.80509230
H        3.16317788       1.39364319       1.56321759
H        1.81592699       1.27733235       2.74482441
